code/testcases/case2869pegase.RAW
 0,    100.00, 32, 0, 0, 60.00       / May 01, 2020 13:24:56; Simulator Version 20; BuildDate 2018_1_18


    3,'3           ', 220.0000,1,   0,   5,   1,1.01597500, -21.797826
    4,'4           ', 220.0000,1,   0,   5,   1,1.02579701,  -7.009176
   10,'10          ', 220.0000,1,   0,   5,   1,1.03797305, -24.311710
   15,'15          ', 220.0000,1,   0,   4,   1,1.02427900, -48.286579
   21,'21          ', 220.0000,1,   0,   5,   1,1.03564203, -21.986562
   22,'22          ', 220.0000,1,   0,   5,   1,1.03286195, -18.511790
   26,'26          ', 380.0000,1,   0,   5,   1,1.03283203,  -3.303479
   29,'29          ', 380.0000,1,   0,   5,   1,0.99790502, -13.742779
   32,'32          ', 220.0000,2,   0,   4,   1,1.00620604, -42.361820
   33,'33          ', 220.0000,2,   0,   4,   1,1.03190899, -37.946489
   38,'38          ', 220.0000,1,   0,   8,   1,1.02847695,  26.320253
   39,'39          ', 150.0000,2,   0,  10,   1,1.00555098, -37.656298
   42,'42          ', 380.0000,1,   0,   4,   1,1.04741502, -48.480512
   44,'44          ', 220.0000,1,   0,   5,   1,1.04527295, -22.209169
   51,'51          ', 220.0000,2,   0,   4,   1,1.01198006, -47.438987
   52,'52          ', 150.0000,1,   0,   8,   1,1.01324499,   0.963784
   53,'53          ', 220.0000,1,   0,   5,   1,1.06052303,  -9.105713
   58,'58          ', 380.0000,1,   0,   5,   1,0.99537301, -21.587045
   59,'59          ', 220.0000,1,   0,   5,   1,1.03157401, -23.793558
   69,'69          ', 150.0000,1,   0,   8,   1,1.01179802,  -0.309340
   71,'71          ', 150.0000,1,   0,   8,   1,1.03778303,   3.197998
   72,'72          ', 220.0000,1,   0,   4,   1,1.00962603, -40.551666
   75,'75          ', 220.0000,1,   0,   4,   1,1.02442205, -52.498016
   76,'76          ', 220.0000,1,   0,   8,   1,1.02853894,  26.329876
   77,'77          ', 220.0000,1,   0,   4,   1,1.01306605, -48.881786
   89,'89          ', 380.0000,1,   0,   2,   1,0.99600101,  -4.601142
   90,'90          ', 220.0000,1,   0,   5,   1,1.04293001, -27.629609
   91,'91          ', 150.0000,1,   0,   8,   1,1.01156294,   0.577525
   96,'96          ', 220.0000,1,   0,   5,   1,1.03480303, -15.625024
  113,'113         ', 380.0000,1,   0,   5,   1,1.03054404, -14.260449
  115,'115         ', 220.0000,1,   0,   5,   1,1.06567597, -19.810351
  118,'118         ', 380.0000,1,   0,   5,   1,1.02191496, -11.391408
  124,'124         ', 220.0000,2,   0,   5,   1,1.07929099,   8.367367
  128,'128         ', 220.0000,1,   0,   5,   1,1.02011502, -16.088574
  130,'130         ', 380.0000,1,   0,  10,   1,1.06297195, -46.623004
  132,'132         ', 380.0000,1,   0,   1,   1,1.06784594, -43.278309
  133,'133         ', 150.0000,1,   0,   8,   1,1.01894999,   2.823528
  138,'138         ', 380.0000,1,   0,  10,   1,1.07116795, -41.338491
  139,'139         ', 380.0000,1,   0,   8,   1,1.00295198,  17.568852
  140,'140         ', 220.0000,1,   0,   8,   1,1.02919102,  17.813412
  143,'143         ', 150.0000,1,   0,   8,   1,1.01382196,   4.415500
  145,'145         ', 220.0000,1,   0,   5,   1,1.04216897,  -8.880162
  148,'148         ', 220.0000,1,   0,   5,   1,1.04168606,  -7.998665
  150,'150         ', 220.0000,2,   0,   5,   1,1.06206703,   2.553662
  163,'163         ', 220.0000,1,   0,   5,   1,1.04250503, -10.668912
  164,'164         ', 150.0000,1,   0,   8,   1,1.01586103,  -0.666839
  171,'171         ', 220.0000,1,   0,   5,   1,1.06378198, -25.157598
  172,'172         ', 220.0000,1,   0,   4,   1,1.01704395, -46.443671
  174,'174         ', 220.0000,1,   0,   5,   1,1.07349098, -27.987178
  177,'177         ', 220.0000,1,   0,  10,   1,0.97337502, -42.693580
  179,'179         ', 380.0000,2,   0,   4,   1,1.04881704, -49.340009
  184,'184         ', 220.0000,1,   0,   5,   1,1.04367900, -11.957994
  188,'188         ', 220.0000,1,   0,   5,   1,1.01827097, -19.570046
  194,'194         ', 150.0000,2,   0,   8,   1,1.02958405,  13.787860
  195,'195         ', 220.0000,1,   0,   5,   1,1.05319095,  -8.795989
  196,'196         ', 220.0000,1,   0,   5,   1,1.07442701, -26.348560
  198,'198         ', 220.0000,1,   0,   5,   1,1.01582003, -16.334437
  199,'199         ', 150.0000,1,   0,   8,   1,1.01119602,   0.998875
  201,'201         ', 220.0000,2,   0,   4,   1,1.02467501, -50.722375
  205,'205         ', 150.0000,1,   0,   8,   1,1.00871003,   4.996181
  207,'207         ', 220.0000,1,   0,   5,   1,1.02759302, -13.462480
  211,'211         ', 110.0000,1,   0,   8,   1,1.03252697,  13.596519
  216,'216         ', 220.0000,1,   0,   5,   1,1.03856301, -24.634597
  217,'217         ', 220.0000,1,   0,   5,   1,1.03470695,  -2.558504
  218,'218         ', 220.0000,1,   0,   5,   1,1.04244494, -13.132419
  221,'221         ', 380.0000,2,   0,   5,   1,0.99609101, -22.219165
  225,'225         ', 220.0000,1,   0,   5,   1,1.06263900, -20.201534
  228,'228         ', 150.0000,1,   0,   2,   1,1.04388499,  -8.143399
  230,'230         ', 220.0000,1,   0,   4,   1,1.00700104, -46.343336
  231,'231         ', 110.0000,1,   0,   8,   1,1.01976299,  23.115587
  236,'236         ', 220.0000,1,   0,   4,   1,1.02884996, -53.547771
  243,'243         ', 150.0000,1,   0,   8,   1,1.01715004,  17.760872
  244,'244         ', 150.0000,1,   0,   8,   1,1.01846302,   6.917494
  249,'249         ', 220.0000,1,   0,   4,   1,1.00539505, -42.359771
  257,'257         ', 220.0000,1,   0,   4,   1,1.03409302, -45.514468
  261,'261         ', 380.0000,1,   0,  10,   1,1.05687594, -45.124464
  264,'264         ', 220.0000,1,   0,   4,   1,1.01505005, -46.406009
  266,'266         ', 380.0000,1,   0,   4,   1,1.05974901, -41.880586
  267,'267         ', 220.0000,1,   0,   4,   1,1.01626694, -50.549725
  268,'268         ', 220.0000,1,   0,   8,   1,1.04666305,  26.481396
  271,'271         ', 150.0000,1,   0,   2,   1,1.03996003,  -9.671728
  275,'275         ', 150.0000,1,   0,   8,   1,1.01263797,   2.382810
  280,'280         ', 220.0000,1,   0,   5,   1,1.03312695, -11.186618
  281,'281         ', 380.0000,1,   0,   8,   1,1.03506696,  14.007344
  283,'283         ', 220.0000,1,   0,   5,   1,1.03629100, -12.101832
  284,'284         ', 220.0000,1,   0,   4,   1,1.02393901, -48.338027
  292,'292         ', 220.0000,1,   0,   5,   1,1.04756999, -14.756323
  297,'297         ', 150.0000,1,   0,   8,   1,1.02576900,   4.498938
  299,'299         ', 380.0000,2,   0,   4,   1,1.04619706, -45.832236
  304,'304         ', 150.0000,1,   0,  10,   1,0.99442601, -53.724871
  305,'305         ', 220.0000,1,   0,   5,   1,1.06606102, -32.494765
  306,'306         ', 220.0000,1,   0,   5,   1,1.02980602, -18.845783
  311,'311         ', 150.0000,1,   0,   8,   1,1.00315499,  -2.003262
  312,'312         ', 110.0000,1,   0,   8,   1,1.05491602,  11.672353
  314,'314         ', 220.0000,1,   0,   5,   1,1.00069499, -16.068607
  315,'315         ', 220.0000,1,   0,  10,   1,1.02686501, -35.887692
  317,'317         ', 380.0000,1,   0,   2,   1,1.01767695,   6.394344
  322,'322         ', 220.0000,1,   0,  10,   1,0.96393198, -44.221790
  326,'326         ', 220.0000,1,   0,   8,   1,1.04679596,  26.528223
  333,'333         ', 220.0000,1,   0,   5,   1,1.01281798, -42.225824
  338,'338         ', 220.0000,2,   0,   5,   1,1.04957795,  -6.144398
  344,'344         ', 150.0000,1,   0,   8,   1,1.02251697,  -1.388364
  346,'346         ', 220.0000,1,   0,   5,   1,1.03938901, -21.333666
  349,'349         ', 150.0000,1,   0,   8,   1,1.04732597,   9.079132
  350,'350         ', 220.0000,1,   0,   5,   1,1.04297495, -24.324407
  351,'351         ', 220.0000,1,   0,   8,   1,1.02805400,  18.540762
  352,'352         ', 380.0000,2,   0,   5,   1,1.05469096,   0.247829
  360,'360         ', 110.0000,1,   0,   8,   1,1.04763699,  11.384137
  367,'367         ', 220.0000,1,   0,   5,   1,1.07125795, -23.626072
  369,'369         ', 220.0000,1,   0,   8,   1,1.04508400,  13.593865
  370,'370         ', 150.0000,1,   0,   8,   1,1.00045002,  -2.194776
  377,'377         ', 150.0000,1,   0,   8,   1,1.02163303,  11.131046
  380,'380         ', 220.0000,1,   0,  10,   1,1.00431502, -32.706030
  385,'385         ', 380.0000,1,   0,   4,   1,1.04504502, -49.151667
  387,'387         ', 150.0000,1,   0,   8,   1,1.04047203,   6.605475
  389,'389         ', 150.0000,2,   0,  10,   1,1.02085602, -40.645903
  392,'392         ', 150.0000,1,   0,   8,   1,1.00555801,  -0.515044
  395,'395         ', 380.0000,1,   0,   8,   1,1.03415406,  15.282226
  401,'401         ', 220.0000,1,   0,   5,   1,1.02820897, -14.323194
  408,'408         ', 220.0000,1,   0,   5,   1,1.04148495, -11.562819
  410,'410         ', 220.0000,1,   0,   5,   1,1.03543103, -26.631809
  413,'413         ', 220.0000,2,   0,   5,   1,1.05215204,  -6.629634
  415,'415         ', 220.0000,1,   0,   4,   1,1.02940702, -51.548507
  416,'416         ', 220.0000,1,   0,   5,   1,1.04178202,  -6.713309
  420,'420         ', 380.0000,1,   0,   8,   1,1.04981303,  18.568380
  425,'425         ', 380.0000,1,   0,   1,   1,1.00868201,   6.877656
  426,'426         ', 220.0000,1,   0,   5,   1,1.04055905, -18.404022
  427,'427         ', 380.0000,1,   0,   1,   1,1.07785499, -35.447131
  429,'429         ', 220.0000,1,   0,   4,   1,1.01802802, -45.166292
  432,'432         ', 380.0000,1,   0,   5,   1,1.04617000,   2.418195
  440,'440         ', 220.0000,2,   0,   4,   1,1.02942204, -36.073637
  441,'441         ', 380.0000,1,   0,  10,   1,1.03716898, -51.706226
  442,'442         ', 220.0000,2,   0,   4,   1,1.01368904, -46.010398
  444,'444         ', 220.0000,1,   0,   5,   1,1.03719199, -12.208318
  445,'445         ', 220.0000,1,   0,   4,   1,1.02226496, -44.379048
  449,'449         ', 380.0000,1,   0,   5,   1,1.02120996,  -8.505204
  453,'453         ', 380.0000,2,   0,   5,   1,1.02109599,  -7.822572
  455,'455         ', 220.0000,1,   0,   5,   1,1.04354501, -30.648087
  472,'472         ', 150.0000,1,   0,   8,   1,1.04986298,   7.888585
  473,'473         ', 220.0000,1,   0,   4,   1,1.02778900, -45.658213
  477,'477         ', 380.0000,1,   0,   4,   1,1.04948699, -41.702126
  481,'481         ', 220.0000,1,   0,   4,   1,1.02424204, -47.836388
  483,'483         ', 220.0000,1,   0,   4,   1,1.02296495, -49.351604
  486,'486         ', 150.0000,1,   0,   8,   1,1.01463306,   4.966833
  489,'489         ', 220.0000,2,   0,   4,   1,1.01280499, -47.213054
  490,'490         ', 220.0000,1,   0,   5,   1,1.03634298, -23.043793
  496,'496         ', 150.0000,1,   0,   8,   1,1.01847398,  11.259593
  500,'500         ', 220.0000,1,   0,   5,   1,1.03796899, -15.068389
  502,'502         ', 220.0000,1,   0,   5,   1,1.04396999,  -6.689582
  506,'506         ', 380.0000,1,   0,   5,   1,1.06289697,  -9.075959
  509,'509         ', 220.0000,1,   0,   4,   1,1.01536798, -60.258852
  513,'513         ', 220.0000,1,   0,   5,   1,1.03886199,  -7.455688
  516,'516         ', 220.0000,2,   0,   5,   1,1.07480395, -33.515516
  519,'519         ', 220.0000,1,   0,   4,   1,1.02673697, -49.849135
  520,'520         ', 220.0000,1,   0,   5,   1,1.04887700, -27.213193
  523,'523         ', 150.0000,1,   0,   8,   1,1.04325604,   7.231269
  527,'527         ', 220.0000,1,   0,   4,   1,1.01438797, -46.235818
  536,'536         ', 380.0000,1,   0,  10,   1,1.05963802, -47.971383
  539,'539         ', 150.0000,1,   0,   8,   1,1.01321101,   3.762537
  544,'544         ', 380.0000,1,   0,  10,   1,1.03905106, -51.441573
  548,'548         ', 110.0000,1,   0,   8,   1,1.03325999,  16.142358
  549,'549         ', 220.0000,1,   0,   5,   1,1.07077706, -10.997410
  550,'550         ', 220.0000,1,   0,   4,   1,1.04004097, -45.192186
  552,'552         ', 150.0000,1,   0,  10,   1,0.96925497, -42.920127
  554,'554         ', 220.0000,1,   0,   5,   1,1.02183795, -20.831433
  556,'556         ', 220.0000,1,   0,   5,   1,1.03678799, -22.791950
  558,'558         ', 150.0000,1,   0,   8,   1,1.01715803,  17.760894
  559,'559         ', 150.0000,1,   0,   8,   1,1.03524005,   5.466244
  561,'561         ', 220.0000,1,   0,   5,   1,1.05190802, -11.066228
  564,'564         ', 220.0000,2,   0,   5,   1,1.06969202, -47.162859
  575,'575         ', 220.0000,1,   0,   5,   1,1.04512298, -11.170776
  577,'577         ', 220.0000,1,   0,   8,   1,1.04591095,  26.397998
  579,'579         ', 380.0000,1,   0,   4,   1,1.02134705, -51.682310
  583,'583         ', 220.0000,2,   0,   5,   1,1.04339397, -15.595496
  585,'585         ', 150.0000,1,   0,   8,   1,1.03252196,   3.857451
  593,'593         ', 380.0000,1,   0,   8,   1,1.05462098,  12.781834
  594,'594         ', 220.0000,1,   0,   5,   1,1.03832197,  -8.883436
  595,'595         ', 220.0000,1,   0,   4,   1,1.02869797, -49.910829
  597,'597         ', 380.0000,1,   0,   4,   1,1.05911398, -47.539486
  601,'601         ', 220.0000,1,   0,   5,   1,1.04110897, -14.413922
  602,'602         ', 220.0000,1,   0,   4,   1,1.02380896, -46.846317
  604,'604         ', 380.0000,1,   0,   5,   1,0.99680197, -12.954482
  608,'608         ', 220.0000,1,   0,   5,   1,1.06783402, -32.673269
  609,'609         ', 220.0000,1,   0,   5,   1,1.02258098, -14.805449
  610,'610         ', 150.0000,1,   0,  10,   1,0.99024200, -55.420595
  615,'615         ', 220.0000,2,   0,   5,   1,1.06611001, -10.707846
  616,'616         ', 220.0000,2,   0,   5,   1,1.04929495, -12.996312
  618,'618         ', 380.0000,2,   0,   4,   1,1.02823305, -48.626654
  619,'619         ', 220.0000,1,   0,   5,   1,1.04520404, -25.296091
  621,'621         ', 220.0000,1,   0,   4,   1,1.01953399, -51.372281
  628,'628         ', 220.0000,2,   0,  10,   1,0.98493999, -34.539287
  639,'639         ', 220.0000,2,   0,   5,   1,1.04618204, -30.213916
  641,'641         ', 220.0000,1,   0,   5,   1,1.03830004, -13.886781
  642,'642         ', 380.0000,2,   0,   4,   1,1.03675699, -50.092904
  643,'643         ', 150.0000,1,   0,   8,   1,1.00703895,  -1.733141
  649,'649         ', 220.0000,1,   0,   4,   1,1.02505195, -48.149343
  650,'650         ', 110.0000,1,   0,   8,   1,1.02057695,  12.404841
  656,'656         ', 220.0000,1,   0,   8,   1,1.02802706,  18.542452
  658,'658         ', 220.0000,1,   0,   5,   1,1.03335798, -17.451459
  659,'659         ', 380.0000,1,   0,   2,   1,1.01712096,   6.345431
...
0 / END OF BUS DATA, BEGIN LOAD DATA
    3,'1 ',1,   0,   1,   151.000,    48.800,     0.000,     0.000,     0.000,     0.000,   1,1
    4,'1 ',1,   0,   1,   171.410,    23.400,     0.000,     0.000,     0.000,     0.000,   1,1
   10,'1 ',1,   0,   1,   134.000,    24.700,     0.000,     0.000,     0.000,     0.000,   1,1
   15,'1 ',1,   0,   1,    59.670,    26.700,     0.000,     0.000,     0.000,     0.000,   1,1
   21,'1 ',1,   0,   1,   161.200,    39.300,     0.000,     0.000,     0.000,     0.000,   1,1
   26,'1 ',1,   0,   1,   167.300,    54.800,     0.000,     0.000,     0.000,     0.000,   1,1
   29,'1 ',1,   0,   1,   152.900,    49.400,     0.000,     0.000,     0.000,     0.000,   1,1
   38,'1 ',1,   0,   1,    42.750,    12.800,     0.000,     0.000,     0.000,     0.000,   1,1
   42,'1 ',1,   0,   1,    20.820,     7.900,     0.000,     0.000,     0.000,     0.000,   1,1
   52,'1 ',1,   0,   1,   127.600,    31.800,     0.000,     0.000,     0.000,     0.000,   1,1
   53,'1 ',1,   0,   1,    48.650,    16.100,     0.000,     0.000,     0.000,     0.000,   1,1
   59,'1 ',1,   0,   1,   119.200,    20.700,     0.000,     0.000,     0.000,     0.000,   1,1
   69,'1 ',1,   0,   1,    62.870,    20.500,     0.000,     0.000,     0.000,     0.000,   1,1
   71,'1 ',1,   0,   1,   126.300,    42.400,     0.000,     0.000,     0.000,     0.000,   1,1
   72,'1 ',1,   0,   1,     6.910,    -4.600,     0.000,     0.000,     0.000,     0.000,   1,1
   75,'1 ',1,   0,   1,    38.740,     6.100,     0.000,     0.000,     0.000,     0.000,   1,1
   76,'1 ',1,   0,   1,    22.130,    10.700,     0.000,     0.000,     0.000,     0.000,   1,1
   90,'1 ',1,   0,   1,   363.250,   115.390,     0.000,     0.000,     0.000,     0.000,   1,1
   96,'1 ',1,   0,   1,    -8.400,    28.660,     0.000,     0.000,     0.000,     0.000,   1,1
  118,'1 ',1,   0,   1,   704.530,   -35.330,     0.000,     0.000,     0.000,     0.000,   1,1
  128,'1 ',1,   0,   1,    23.730,    12.700,     0.000,     0.000,     0.000,     0.000,   1,1
  133,'1 ',1,   0,   1,    38.140,    12.500,     0.000,     0.000,     0.000,     0.000,   1,1
  138,'1 ',1,   0,   1,   -75.380,     7.800,     0.000,     0.000,     0.000,     0.000,   1,1
  139,'1 ',1,   0,   1,  -764.340,    66.910,     0.000,     0.000,     0.000,     0.000,   1,1
  145,'1 ',1,   0,   1,    38.340,     5.600,     0.000,     0.000,     0.000,     0.000,   1,1
  148,'1 ',1,   0,   1,    32.340,    12.000,     0.000,     0.000,     0.000,     0.000,   1,1
  163,'1 ',1,   0,   1,   147.760,    32.730,     0.000,     0.000,     0.000,     0.000,   1,1
  171,'1 ',1,   0,   1,   100.800,    13.200,     0.000,     0.000,     0.000,     0.000,   1,1
  172,'1 ',1,   0,   1,   111.700,    10.960,     0.000,     0.000,     0.000,     0.000,   1,1
  174,'1 ',1,   0,   1,   370.500,   -17.000,     0.000,     0.000,     0.000,     0.000,   1,1
  177,'1 ',1,   0,   1,    94.900,    36.200,     0.000,     0.000,     0.000,     0.000,   1,1
  188,'1 ',1,   0,   1,    36.840,    13.900,     0.000,     0.000,     0.000,     0.000,   1,1
  195,'1 ',1,   0,   1,    73.140,    21.550,     0.000,     0.000,     0.000,     0.000,   1,1
  198,'1 ',1,   0,   1,    39.740,    11.800,     0.000,     0.000,     0.000,     0.000,   1,1
  199,'1 ',1,   0,   1,    86.800,    28.400,     0.000,     0.000,     0.000,     0.000,   1,1
  205,'1 ',1,   0,   1,    46.150,    18.200,     0.000,     0.000,     0.000,     0.000,   1,1
  207,'1 ',1,   0,   1,   321.980,    84.400,     0.000,     0.000,     0.000,     0.000,   1,1
  211,'1 ',1,   0,   1,    75.280,    19.200,     0.000,     0.000,     0.000,     0.000,   1,1
  216,'1 ',1,   0,   1,   155.600,    54.700,     0.000,     0.000,     0.000,     0.000,   1,1
  217,'1 ',1,   0,   1,   105.200,     0.100,     0.000,     0.000,     0.000,     0.000,   1,1
  218,'1 ',1,   0,   1,    69.830,    15.120,     0.000,     0.000,     0.000,     0.000,   1,1
  228,'1 ',1,   0,   1,   -23.430,    57.400,     0.000,     0.000,     0.000,     0.000,   1,1
  230,'1 ',1,   0,   1,   152.070,    22.520,     0.000,     0.000,     0.000,     0.000,   1,1
  231,'1 ',1,   0,   1,    -0.130,    -1.000,     0.000,     0.000,     0.000,     0.000,   1,1
  236,'1 ',1,   0,   1,    45.850,     7.000,     0.000,     0.000,     0.000,     0.000,   1,1
  243,'1 ',1,   0,   1,     0.000,    -0.010,     0.000,     0.000,     0.000,     0.000,   1,1
  257,'1 ',1,   0,   1,   113.900,    24.500,     0.000,     0.000,     0.000,     0.000,   1,1
  264,'1 ',1,   0,   1,    38.740,     9.000,     0.000,     0.000,     0.000,     0.000,   1,1
  267,'1 ',1,   0,   1,   103.800,     2.700,     0.000,     0.000,     0.000,     0.000,   1,1
  268,'1 ',1,   0,   1,    -0.130,    -1.000,     0.000,     0.000,     0.000,     0.000,   1,1
  271,'1 ',1,   0,   1,    96.700,    26.800,     0.000,     0.000,     0.000,     0.000,   1,1
  275,'1 ',1,   0,   1,   102.100,    25.300,     0.000,     0.000,     0.000,     0.000,   1,1
  280,'1 ',1,   0,   1,   119.600,    29.600,     0.000,     0.000,     0.000,     0.000,   1,1
  283,'1 ',1,   0,   1,    27.330,    11.900,     0.000,     0.000,     0.000,     0.000,   1,1
  284,'1 ',1,   0,   1,   191.200,    -3.400,     0.000,     0.000,     0.000,     0.000,   1,1
  292,'1 ',1,   0,   1,    13.820,     1.400,     0.000,     0.000,     0.000,     0.000,   1,1
  297,'1 ',1,   0,   1,    23.730,     9.400,     0.000,     0.000,     0.000,     0.000,   1,1
  304,'1 ',1,   0,   1,     2.200,     0.500,     0.000,     0.000,     0.000,     0.000,   1,1
  305,'1 ',1,   0,   1,   103.000,    12.000,     0.000,     0.000,     0.000,     0.000,   1,1
  311,'1 ',1,   0,   1,    42.050,    17.200,     0.000,     0.000,     0.000,     0.000,   1,1
  312,'1 ',1,   0,   1,    -0.160,    -2.910,     0.000,     0.000,     0.000,     0.000,   1,1
  314,'1 ',1,   0,   1,   163.100,    46.300,     0.000,     0.000,     0.000,     0.000,   1,1
  322,'1 ',1,   0,   1,   303.800,    85.400,     0.000,     0.000,     0.000,     0.000,   1,1
  333,'1 ',1,   0,   1,   524.500,    43.000,     0.000,     0.000,     0.000,     0.000,   1,1
  344,'1 ',1,   0,   1,   372.800,   147.500,     0.000,     0.000,     0.000,     0.000,   1,1
  346,'1 ',1,   0,   1,   197.500,    48.300,     0.000,     0.000,     0.000,     0.000,   1,1
  350,'1 ',1,   0,   1,   110.400,    26.200,     0.000,     0.000,     0.000,     0.000,   1,1
  351,'1 ',1,   0,   1,    -0.150,    -1.930,     0.000,     0.000,     0.000,     0.000,   1,1
  360,'1 ',1,   0,   1,    35.540,    11.500,     0.000,     0.000,     0.000,     0.000,   1,1
  367,'1 ',1,   0,   1,    65.170,   -51.500,     0.000,     0.000,     0.000,     0.000,   1,1
  370,'1 ',1,   0,   1,    56.760,    23.200,     0.000,     0.000,     0.000,     0.000,   1,1
  377,'1 ',1,   0,   1,    -0.180,    -1.000,     0.000,     0.000,     0.000,     0.000,   1,1
  380,'1 ',1,   0,   1,   -95.710,    -2.800,     0.000,     0.000,     0.000,     0.000,   1,1
  387,'1 ',1,   0,   1,    -0.190,    -4.380,     0.000,     0.000,     0.000,     0.000,   1,1
  392,'1 ',1,   0,   1,   134.100,    34.200,     0.000,     0.000,     0.000,     0.000,   1,1
  401,'1 ',1,   0,   1,    56.500,    36.290,     0.000,     0.000,     0.000,     0.000,   1,1
  408,'1 ',1,   0,   1,   129.100,     7.400,     0.000,     0.000,     0.000,     0.000,   1,1
  410,'1 ',1,   0,   1,   170.890,    50.380,     0.000,     0.000,     0.000,     0.000,   1,1
  415,'1 ',1,   0,   1,     4.710,     0.700,     0.000,     0.000,     0.000,     0.000,   1,1
  416,'1 ',1,   0,   1,    70.680,    13.500,     0.000,     0.000,     0.000,     0.000,   1,1
  426,'1 ',1,   0,   1,   123.100,     6.500,     0.000,     0.000,     0.000,     0.000,   1,1
  429,'1 ',1,   0,   1,    26.930,   -22.400,     0.000,     0.000,     0.000,     0.000,   1,1
  445,'1 ',1,   0,   1,    36.740,    10.300,     0.000,     0.000,     0.000,     0.000,   1,1
  455,'1 ',1,   0,   1,   274.320,     5.660,     0.000,     0.000,     0.000,     0.000,   1,1
  472,'1 ',1,   0,   1,   336.200,   131.600,     0.000,     0.000,     0.000,     0.000,   1,1
  473,'1 ',1,   0,   1,   -22.950,    -3.720,     0.000,     0.000,     0.000,     0.000,   1,1
  483,'1 ',1,   0,   1,    57.260,    15.600,     0.000,     0.000,     0.000,     0.000,   1,1
  486,'1 ',1,   0,   1,     7.010,     2.000,     0.000,     0.000,     0.000,     0.000,   1,1
  490,'1 ',1,   0,   1,    20.520,     4.000,     0.000,     0.000,     0.000,     0.000,   1,1
  500,'1 ',1,   0,   1,   144.400,    35.500,     0.000,     0.000,     0.000,     0.000,   1,1
  509,'1 ',1,   0,   1,    77.290,     7.000,     0.000,     0.000,     0.000,     0.000,   1,1
  513,'1 ',1,   0,   1,    57.460,    17.100,     0.000,     0.000,     0.000,     0.000,   1,1
  519,'1 ',1,   0,   1,   207.200,     9.400,     0.000,     0.000,     0.000,     0.000,   1,1
  520,'1 ',1,   0,   1,   118.500,    20.400,     0.000,     0.000,     0.000,     0.000,   1,1
  523,'1 ',1,   0,   1,   189.900,    74.700,     0.000,     0.000,     0.000,     0.000,   1,1
  527,'1 ',1,   0,   1,   277.700,    45.400,     0.000,     0.000,     0.000,     0.000,   1,1
  536,'1 ',1,   0,   1,    87.800,    -1.400,     0.000,     0.000,     0.000,     0.000,   1,1
  539,'1 ',1,   0,   1,    57.960,    18.900,     0.000,     0.000,     0.000,     0.000,   1,1
  544,'1 ',1,   0,   1,    79.690,    39.600,     0.000,     0.000,     0.000,     0.000,   1,1
  548,'1 ',1,   0,   1,    30.930,     8.900,     0.000,     0.000,     0.000,     0.000,   1,1
  552,'1 ',1,   0,   1,   180.800,    90.800,     0.000,     0.000,     0.000,     0.000,   1,1
  556,'1 ',1,   0,   1,    16.520,     9.000,     0.000,     0.000,     0.000,     0.000,   1,1
  558,'1 ',1,   0,   1,    -0.180,    -3.570,     0.000,     0.000,     0.000,     0.000,   1,1
  559,'1 ',1,   0,   1,    42.250,    16.600,     0.000,     0.000,     0.000,     0.000,   1,1
  577,'1 ',1,   0,   1,    -0.130,    -1.000,     0.000,     0.000,     0.000,     0.000,   1,1
  579,'1 ',1,   0,   1,    17.320,     6.600,     0.000,     0.000,     0.000,     0.000,   1,1
  585,'1 ',1,   0,   1,    21.120,     8.300,     0.000,     0.000,     0.000,     0.000,   1,1
  594,'1 ',1,   0,   1,    67.570,    17.000,     0.000,     0.000,     0.000,     0.000,   1,1
  595,'1 ',1,   0,   1,    47.550,     5.300,     0.000,     0.000,     0.000,     0.000,   1,1
  597,'1 ',1,   0,   1,    33.340,    15.700,     0.000,     0.000,     0.000,     0.000,   1,1
  601,'1 ',1,   0,   1,   140.600,    42.600,     0.000,     0.000,     0.000,     0.000,   1,1
  602,'1 ',1,   0,   1,   110.800,    -8.800,     0.000,     0.000,     0.000,     0.000,   1,1
  604,'1 ',1,   0,   1,    33.240,     4.400,     0.000,     0.000,     0.000,     0.000,   1,1
  608,'1 ',1,   0,   1,   150.900,    10.400,     0.000,     0.000,     0.000,     0.000,   1,1
  619,'1 ',1,   0,   1,    72.880,    14.400,     0.000,     0.000,     0.000,     0.000,   1,1
  621,'1 ',1,   0,   1,    21.420,     8.100,     0.000,     0.000,     0.000,     0.000,   1,1
  641,'1 ',1,   0,   1,    45.320,    18.500,     0.000,     0.000,     0.000,     0.000,   1,1
  643,'1 ',1,   0,   1,    15.520,     6.300,     0.000,     0.000,     0.000,     0.000,   1,1
  649,'1 ',1,   0,   1,    40.940,    19.200,     0.000,     0.000,     0.000,     0.000,   1,1
  650,'1 ',1,   0,   1,    17.220,     4.400,     0.000,     0.000,     0.000,     0.000,   1,1
  656,'1 ',1,   0,   1,    -0.150,    -1.930,     0.000,     0.000,     0.000,     0.000,   1,1
  658,'1 ',1,   0,   1,   258.400,    66.700,     0.000,     0.000,     0.000,     0.000,   1,1
  666,'1 ',1,   0,   1,    -5.610,    -2.790,     0.000,     0.000,     0.000,     0.000,   1,1
  676,'1 ',1,   0,   1,   109.300,    35.400,     0.000,     0.000,     0.000,     0.000,   1,1
  678,'1 ',1,   0,   1,   232.100,    89.800,     0.000,     0.000,     0.000,     0.000,   1,1
  695,'1 ',1,   0,   1,    96.410,    26.500,     0.000,     0.000,     0.000,     0.000,   1,1
  699,'1 ',1,   0,   1,    36.540,     8.400,     0.000,     0.000,     0.000,     0.000,   1,1
  706,'1 ',1,   0,   1,   114.800,    22.800,     0.000,     0.000,     0.000,     0.000,   1,1
  707,'1 ',1,   0,   1,    83.990,    21.200,     0.000,     0.000,     0.000,     0.000,   1,1
  710,'1 ',1,   0,   1,    76.380,     5.100,     0.000,     0.000,     0.000,     0.000,   1,1
  712,'1 ',1,   0,   1,   110.400,    41.900,     0.000,     0.000,     0.000,     0.000,   1,1
  718,'1 ',1,   0,   1,   135.110,    41.000,     0.000,     0.000,     0.000,     0.000,   1,1
  726,'1 ',1,   0,   1,   400.300,   189.900,     0.000,     0.000,     0.000,     0.000,   1,1
  733,'1 ',1,   0,   1,    58.360,    10.700,     0.000,     0.000,     0.000,     0.000,   1,1
  747,'1 ',1,   0,   1,    69.580,    16.000,     0.000,     0.000,     0.000,     0.000,   1,1
  754,'1 ',1,   0,   1,   132.100,    32.400,     0.000,     0.000,     0.000,     0.000,   1,1
  769,'1 ',1,   0,   1,   152.570,    40.000,     0.000,     0.000,     0.000,     0.000,   1,1
  772,'1 ',1,   0,   1,   343.900,   141.900,     0.000,     0.000,     0.000,     0.000,   1,1
  775,'1 ',1,   0,   1,   -55.140,   -27.140,     0.000,     0.000,     0.000,     0.000,   1,1
  784,'1 ',1,   0,   1,   -26.000,   -14.720,     0.000,     0.000,     0.000,     0.000,   1,1
  790,'1 ',1,   0,   1,    -0.150,    -1.000,     0.000,     0.000,     0.000,     0.000,   1,1
  792,'1 ',1,   0,   1,   295.300,    41.900,     0.000,     0.000,     0.000,     0.000,   1,1
  797,'1 ',1,   0,   1,     2.000,   114.600,     0.000,     0.000,     0.000,     0.000,   1,1
  800,'1 ',1,   0,   1,    50.560,    18.000,     0.000,     0.000,     0.000,     0.000,   1,1
  805,'1 ',1,   0,   1,   124.500,    29.600,     0.000,     0.000,     0.000,     0.000,   1,1
  808,'1 ',1,   0,   1,    24.530,     8.600,     0.000,     0.000,     0.000,     0.000,   1,1
  814,'1 ',1,   0,   1,   287.700,    16.300,     0.000,     0.000,     0.000,     0.000,   1,1
  838,'1 ',1,   0,   1,   615.810,   286.690,     0.000,     0.000,     0.000,     0.000,   1,1
  854,'1 ',1,   0,   1,    49.960,     7.500,     0.000,     0.000,     0.000,     0.000,   1,1
  869,'1 ',1,   0,   1,    94.200,     5.500,     0.000,     0.000,     0.000,     0.000,   1,1
  870,'1 ',1,   0,   1,   110.000,     3.400,     0.000,     0.000,     0.000,     0.000,   1,1
  871,'1 ',1,   0,   1,   108.890,   -21.760,     0.000,     0.000,     0.000,     0.000,   1,1
  883,'1 ',1,   0,   1,   192.500,    78.300,     0.000,     0.000,     0.000,     0.000,   1,1
  898,'1 ',1,   0,   1,    25.630,     7.900,     0.000,     0.000,     0.000,     0.000,   1,1
  903,'1 ',1,   0,   1,    82.690,    20.100,     0.000,     0.000,     0.000,     0.000,   1,1
  905,'1 ',1,   0,   1,   631.710,   -54.160,     0.000,     0.000,     0.000,     0.000,   1,1
  908,'1 ',1,   0,   1,   125.900,    -0.500,     0.000,     0.000,     0.000,     0.000,   1,1
  920,'1 ',1,   0,   1,    34.440,     8.500,     0.000,     0.000,     0.000,     0.000,   1,1
  923,'1 ',1,   0,   1,    62.070,    14.700,     0.000,     0.000,     0.000,     0.000,   1,1
  928,'1 ',1,   0,   1,   112.900,    19.300,     0.000,     0.000,     0.000,     0.000,   1,1
  929,'1 ',1,   0,   1,    43.750,    12.400,     0.000,     0.000,     0.000,     0.000,   1,1
  932,'1 ',1,   0,   1,    77.590,    12.300,     0.000,     0.000,     0.000,     0.000,   1,1
  947,'1 ',1,   0,   1,    90.700,     5.800,     0.000,     0.000,     0.000,     0.000,   1,1
  948,'1 ',1,   0,   1,    15.820,     4.000,     0.000,     0.000,     0.000,     0.000,   1,1
  950,'1 ',1,   0,   1,    69.080,    22.600,     0.000,     0.000,     0.000,     0.000,   1,1
  953,'1 ',1,   0,   1,   108.700,   -12.150,     0.000,     0.000,     0.000,     0.000,   1,1
  954,'1 ',1,   0,   1,    66.270,    13.600,     0.000,     0.000,     0.000,     0.000,   1,1
  955,'1 ',1,   0,   1,   244.200,   152.700,     0.000,     0.000,     0.000,     0.000,   1,1
  957,'1 ',1,   0,   1,    65.770,    16.100,     0.000,     0.000,     0.000,     0.000,   1,1
  962,'1 ',1,   0,   1,    42.550,    17.100,     0.000,     0.000,     0.000,     0.000,   1,1
  964,'1 ',1,   0,   1,    88.500,    16.500,     0.000,     0.000,     0.000,     0.000,   1,1
  970,'1 ',1,   0,   1,    62.270,    -2.100,     0.000,     0.000,     0.000,     0.000,   1,1
  980,'1 ',1,   0,   1,    14.710,     4.600,     0.000,     0.000,     0.000,     0.000,   1,1
  986,'1 ',1,   0,   1,    15.980,     0.860,     0.000,     0.000,     0.000,     0.000,   1,1
  999,'1 ',1,   0,   1,    20.020,     6.800,     0.000,     0.000,     0.000,     0.000,   1,1
 1010,'1 ',1,   0,   1,    21.320,     7.300,     0.000,     0.000,     0.000,     0.000,   1,1
 1011,'1 ',1,   0,   1,    -0.200,    -1.000,     0.000,     0.000,     0.000,     0.000,   1,1
 1013,'1 ',1,   0,   1,   136.060,    40.400,     0.000,     0.000,     0.000,     0.000,   1,1
 1015,'1 ',1,   0,   1,    44.550,     0.000,     0.000,     0.000,     0.000,     0.000,   1,1
 1020,'1 ',1,   0,   1,     8.210,     3.310,     0.000,     0.000,     0.000,     0.000,   1,1
 1025,'1 ',1,   0,   1,   241.400,    -2.500,     0.000,     0.000,     0.000,     0.000,   1,1
 1026,'1 ',1,   0,   1,   201.400,    53.000,     0.000,     0.000,     0.000,     0.000,   1,1
 1027,'1 ',1,   0,   1,    -5.910,    -2.330,     0.000,     0.000,     0.000,     0.000,   1,1
 1033,'1 ',1,   0,   1,    26.330,     5.300,     0.000,     0.000,     0.000,     0.000,   1,1
 1035,'1 ',1,   0,   1,   382.500,    57.900,     0.000,     0.000,     0.000,     0.000,   1,1
 1039,'1 ',1,   0,   1,    34.640,     0.000,     0.000,     0.000,     0.000,     0.000,   1,1
 1040,'1 ',1,   0,   1,    31.940,     8.800,     0.000,     0.000,     0.000,     0.000,   1,1
 1046,'1 ',1,   0,   1,    47.050,    19.300,     0.000,     0.000,     0.000,     0.000,   1,1
 1052,'1 ',1,   0,   1,    67.480,    32.600,     0.000,     0.000,     0.000,     0.000,   1,1
 1064,'1 ',1,   0,   1,   215.200,    -7.600,     0.000,     0.000,     0.000,     0.000,   1,1
 1065,'1 ',1,   0,   1,    89.600,    20.000,     0.000,     0.000,     0.000,     0.000,   1,1
 1074,'1 ',1,   0,   1,   403.900,    -0.100,     0.000,     0.000,     0.000,     0.000,   1,1
 1081,'1 ',1,   0,   1,   277.860,    58.950,     0.000,     0.000,     0.000,     0.000,   1,1
 1086,'1 ',1,   0,   1,    12.010,     5.600,     0.000,     0.000,     0.000,     0.000,   1,1
 1090,'1 ',1,   0,   1,    56.060,    18.700,     0.000,     0.000,     0.000,     0.000,   1,1
 1094,'1 ',1,   0,   1,    28.530,    11.300,     0.000,     0.000,     0.000,     0.000,   1,1
 1105,'1 ',1,   0,   1,    29.830,     7.300,     0.000,     0.000,     0.000,     0.000,   1,1
 1106,'1 ',1,   0,   1,   192.400,    63.900,     0.000,     0.000,     0.000,     0.000,   1,1
 1109,'1 ',1,   0,   1,   -54.060,    13.100,     0.000,     0.000,     0.000,     0.000,   1,1
 1114,'1 ',1,   0,   1,    59.270,     5.100,     0.000,     0.000,     0.000,     0.000,   1,1
...
0 / END OF LOAD DATA, BEGIN FIXED SHUNT DATA
0 / END OF FIXED SHUNT DATA, BEGIN GENERATOR DATA
   32,'1 ',     8.000,     0.060,     5.910,    -4.560,1.00621,    0,   100.000,   0.00000,   1.00000,   0.00000,   0.00000,1.00000,1,  100.0,    16.200,     0.000,   1,1.0000,   0,1.0000,   0,1.0000,   0,1.0000,0, 1.0000
   33,'1 ',     5.300,     0.410,     2.270,    -1.080,1.03191,    0,   100.000,   0.00000,   1.00000,   0.00000,   0.00000,1.00000,1,  100.0,     5.380,     0.000,   1,1.0000,   0,1.0000,   0,1.0000,   0,1.0000,0, 1.0000
   39,'1 ',    34.300,     4.840,    17.760,    -7.140,1.00555,    0,   100.000,   0.00000,   1.00000,   0.00000,   0.00000,1.00000,1,  100.0,    40.000,     0.000,   1,1.0000,   0,1.0000,   0,1.0000,   0,1.0000,0, 1.0000
   51,'1 ',  -144.500,     0.550,     5.480,    -4.190,1.01198,    0,   100.000,   0.00000,   1.00000,   0.00000,   0.00000,1.00000,1,  100.0,   100.000,  -192.670,   1,1.0000,   0,1.0000,   0,1.0000,   0,1.0000,0, 1.0000
  124,'1 ',   861.300,    51.520,   440.320,  -172.590,1.07929,    0,   100.000,   0.00000,   1.00000,   0.00000,   0.00000,1.00000,1,  100.0,  1000.000,   333.330,   1,1.0000,   0,1.0000,   0,1.0000,   0,1.0000,0, 1.0000
  150,'1 ',    67.290,    -9.790,    77.090,   -22.540,1.06207,    0,   100.000,   0.00000,   1.00000,   0.00000,   0.00000,1.00000,1,  100.0,   160.000,     0.000,   1,1.0000,   0,1.0000,   0,1.0000,   0,1.0000,0, 1.0000
  179,'1 ',  -179.200,   -33.840,    52.640,   -51.720,1.04882,    0,   100.000,   0.00000,   1.00000,   0.00000,   0.00000,1.00000,1,  100.0,   100.000,  -238.930,   1,1.0000,   0,1.0000,   0,1.0000,   0,1.0000,0, 1.0000
  194,'1 ',   268.600,    43.340,   130.190,   -53.530,1.02958,    0,   100.000,   0.00000,   1.00000,   0.00000,   0.00000,1.00000,1,  100.0,   300.000,   100.000,   1,1.0000,   0,1.0000,   0,1.0000,   0,1.0000,0, 1.0000
  201,'1 ',     5.200,     0.390,     2.270,    -1.070,1.02468,    0,   100.000,   0.00000,   1.00000,   0.00000,   0.00000,1.00000,1,  100.0,     5.370,     0.000,   1,1.0000,   0,1.0000,   0,1.0000,   0,1.0000,0, 1.0000
  221,'1 ',  -155.390,    91.050,   183.920,   -65.300,0.99609,    0,   100.000,   0.00000,   1.00000,   0.00000,   0.00000,1.00000,1,  100.0,   100.000,  -207.180,   1,1.0000,   0,1.0000,   0,1.0000,   0,1.0000,0, 1.0000
  299,'1 ',   975.900,   127.200,   721.250,  -258.710,1.04620,    0,   100.000,   0.00000,   1.00000,   0.00000,   0.00000,1.00000,1,  100.0,  1600.000,   533.330,   1,1.0000,   0,1.0000,   0,1.0000,   0,1.0000,0, 1.0000
  338,'1 ',    83.700,     1.480,    55.540,   -19.160,1.04958,    0,   100.000,   0.00000,   1.00000,   0.00000,   0.00000,1.00000,1,  100.0,   120.000,     0.000,   1,1.0000,   0,1.0000,   0,1.0000,   0,1.0000,0, 1.0000
  352,'1 ',  1250.400,   268.170,   926.350,  -297.680,1.05469,    0,   100.000,   0.00000,   1.00000,   0.00000,   0.00000,1.00000,1,  100.0,  2000.000,   666.670,   1,1.0000,   0,1.0000,   0,1.0000,   0,1.0000,0, 1.0000
  389,'1 ',    69.000,    16.810,    56.730,   -17.840,1.02086,    0,   100.000,   0.00000,   1.00000,   0.00000,   0.00000,1.00000,1,  100.0,   120.000,     0.000,   1,1.0000,   0,1.0000,   0,1.0000,   0,1.0000,0, 1.0000
  413,'1 ',   231.000,    19.250,   124.120,   -49.840,1.05215,    0,   100.000,   0.00000,   1.00000,   0.00000,   0.00000,1.00000,1,  100.0,   280.000,     0.000,   1,1.0000,   0,1.0000,   0,1.0000,   0,1.0000,0, 1.0000
  440,'1 ',    83.100,    -4.050,    55.730,   -19.010,1.02942,    0,   100.000,   0.00000,   1.00000,   0.00000,   0.00000,1.00000,1,  100.0,   120.000,     0.000,   1,1.0000,   0,1.0000,   0,1.0000,   0,1.0000,0, 1.0000
  442,'1 ',   -40.350,     0.430,     1.950,    -0.930,1.01369,    0,   100.000,   0.00000,   1.00000,   0.00000,   0.00000,1.00000,1,  100.0,   100.000,   -53.800,   1,1.0000,   0,1.0000,   0,1.0000,   0,1.0000,0, 1.0000
  453,'1 ',   260.100,    54.540,   257.230,   -74.400,1.02110,    0,   100.000,   0.00000,   1.00000,   0.00000,   0.00000,1.00000,1,  100.0,   540.000,     0.000,   1,1.0000,   0,1.0000,   0,1.0000,   0,1.0000,0, 1.0000
  489,'1 ',  -107.400,     0.510,     6.280,    -4.820,1.01280,    0,   100.000,   0.00000,   1.00000,   0.00000,   0.00000,1.00000,1,  100.0,   100.000,  -143.200,   1,1.0000,   0,1.0000,   0,1.0000,   0,1.0000,0, 1.0000
  516,'1 ',   539.400,   188.570,   261.790,  -106.670,1.07480,    0,   100.000,   0.00000,   1.00000,   0.00000,   0.00000,1.00000,1,  100.0,   600.000,   200.000,   1,1.0000,   0,1.0000,   0,1.0000,   0,1.0000,0, 1.0000
  564,'1 ',   -51.670,    -0.630,    18.470,   -19.350,1.06969,    0,   100.000,   0.00000,   1.00000,   0.00000,   0.00000,1.00000,1,  100.0,   100.000,   -68.890,   1,1.0000,   0,1.0000,   0,1.0000,   0,1.0000,0, 1.0000
  583,'1 ',  -270.000,     5.380,    17.880,    -7.030,1.04339,    0,   100.000,   0.00000,   1.00000,   0.00000,   0.00000,1.00000,1,  100.0,   100.000,  -360.000,   1,1.0000,   0,1.0000,   0,1.0000,   0,1.0000,0, 1.0000
  615,'1 ',    38.200,     0.100,    17.090,    -7.790,1.06611,    0,   100.000,   0.00000,   1.00000,   0.00000,   0.00000,1.00000,1,  100.0,    40.000,     0.000,   1,1.0000,   0,1.0000,   0,1.0000,   0,1.0000,0, 1.0000
  616,'1 ',   379.200,    41.620,   217.900,   -81.160,1.04929,    0,   100.000,   0.00000,   1.00000,   0.00000,   0.00000,1.00000,1,  100.0,   480.000,   160.000,   1,1.0000,   0,1.0000,   0,1.0000,   0,1.0000,0, 1.0000
  618,'1 ',   670.300,   -35.390,   351.180,  -139.110,1.02823,    0,   100.000,   0.00000,   1.00000,   0.00000,   0.00000,1.00000,1,  100.0,   800.000,   266.670,   1,1.0000,   0,1.0000,   0,1.0000,   0,1.0000,0, 1.0000
  628,'1 ',   152.400,    41.510,    78.790,   -31.690,0.98494,    0,   100.000,   0.00000,   1.00000,   0.00000,   0.00000,1.00000,1,  100.0,   180.000,     0.000,   1,1.0000,   0,1.0000,   0,1.0000,   0,1.0000,0, 1.0000
  639,'1 ',   -46.200,   113.220,   135.520,   -38.900,1.04618,    0,   100.000,   0.00000,   1.00000,   0.00000,   0.00000,1.00000,1,  100.0,   100.000,   -61.600,   1,1.0000,   0,1.0000,   0,1.0000,   0,1.0000,0, 1.0000
  642,'1 ',    63.330,   -61.520,    90.130,   -93.030,1.03676,    0,   100.000,   0.00000,   1.00000,   0.00000,   0.00000,1.00000,1,  100.0,   276.090,     0.000,   1,1.0000,   0,1.0000,   0,1.0000,   0,1.0000,0, 1.0000
  682,'1 ',    37.400,     7.680,    38.770,   -11.060,1.06527,    0,   100.000,   0.00000,   1.00000,   0.00000,   0.00000,1.00000,1,  100.0,    80.000,     0.000,   1,1.0000,   0,1.0000,   0,1.0000,   0,1.0000,0, 1.0000
  686,'1 ',   -21.650,   -10.170,    34.750,   -34.260,1.01806,    0,   100.000,   0.00000,   1.00000,   0.00000,   0.00000,1.00000,1,  100.0,   100.000,   -28.860,   1,1.0000,   0,1.0000,   0,1.0000,   0,1.0000,0, 1.0000
  698,'1 ',   274.800,     1.650,   129.940,   -53.910,1.00154,    0,   100.000,   0.00000,   1.00000,   0.00000,   0.00000,1.00000,1,  100.0,   300.000,   100.000,   1,1.0000,   0,1.0000,   0,1.0000,   0,1.0000,0, 1.0000
  709,'1 ',    16.000,   -10.200,    22.230,   -20.830,1.07215,    0,   100.000,   0.00000,   1.00000,   0.00000,   0.00000,1.00000,1,  100.0,    65.300,     0.000,   1,1.0000,   0,1.0000,   0,1.0000,   0,1.0000,0, 1.0000
  739,'1 ',   465.700,   -64.040,   212.970,   -93.450,1.04058,    0,   100.000,   0.00000,   1.00000,   0.00000,   0.00000,1.00000,1,  100.0,   500.000,   166.670,   1,1.0000,   0,1.0000,   0,1.0000,   0,1.0000,0, 1.0000
  749,'1 ',   198.880,     4.460,   105.690,   -43.840,1.05480,    0,   100.000,   0.00000,   1.00000,   0.00000,   0.00000,1.00000,1,  100.0,   240.000,     0.000,   1,1.0000,   0,1.0000,   0,1.0000,   0,1.0000,0, 1.0000
  751,'1 ',    65.900,   -25.620,   136.940,   -47.240,1.02365,    0,   100.000,   0.00000,   1.00000,   0.00000,   0.00000,1.00000,1,  100.0,   300.000,     0.000,   1,1.0000,   0,1.0000,   0,1.0000,   0,1.0000,0, 1.0000
  757,'1 ',   116.700,    16.760,    51.300,   -23.410,1.01662,    0,   100.000,   0.00000,   1.00000,   0.00000,   0.00000,1.00000,1,  100.0,   120.000,     0.000,   1,1.0000,   0,1.0000,   0,1.0000,   0,1.0000,0, 1.0000
  776,'1 ',  -111.400,     5.740,    18.160,    -6.730,1.02904,    0,   100.000,   0.00000,   1.00000,   0.00000,   0.00000,1.00000,1,  100.0,   100.000,  -148.530,   1,1.0000,   0,1.0000,   0,1.0000,   0,1.0000,0, 1.0000
  778,'1 ',    16.500,    -0.500,    12.370,    -9.360,1.05104,    0,   100.000,   0.00000,   1.00000,   0.00000,   0.00000,1.00000,1,  100.0,    33.580,     0.000,   1,1.0000,   0,1.0000,   0,1.0000,   0,1.0000,0, 1.0000
  780,'1 ',    50.800,    17.970,    37.430,   -12.320,1.00614,    0,   100.000,   0.00000,   1.00000,   0.00000,   0.00000,1.00000,1,  100.0,    80.000,     0.000,   1,1.0000,   0,1.0000,   0,1.0000,   0,1.0000,0, 1.0000
  795,'1 ',    58.400,     7.490,    36.750,   -13.040,1.03964,    0,   100.000,   0.00000,   1.00000,   0.00000,   0.00000,1.00000,1,  100.0,    80.000,     0.000,   1,1.0000,   0,1.0000,   0,1.0000,   0,1.0000,0, 1.0000
  803,'1 ',   -89.200,     2.650,    74.030,   -25.540,1.04396,    0,   100.000,   0.00000,   1.00000,   0.00000,   0.00000,1.00000,1,  100.0,   100.000,  -118.930,   1,1.0000,   0,1.0000,   0,1.0000,   0,1.0000,0, 1.0000
  807,'1 ',  1597.500,  -194.050,   864.470,  -360.970,1.05704,    0,   100.000,   0.00000,   1.00000,   0.00000,   0.00000,1.00000,1,  100.0,  2000.000,   666.670,   1,1.0000,   0,1.0000,   0,1.0000,   0,1.0000,0, 1.0000
  823,'1 ',  1274.200,   283.530,   926.680,  -298.310,1.04435,    0,   100.000,   0.00000,   1.00000,   0.00000,   0.00000,1.00000,1,  100.0,  2000.000,   666.670,   1,1.0000,   0,1.0000,   0,1.0000,   0,1.0000,0, 1.0000
  849,'1 ',     8.700,    -0.020,     6.450,    -4.910,1.04139,    0,   100.000,   0.00000,   1.00000,   0.00000,   0.00000,1.00000,1,  100.0,    17.570,     0.000,   1,1.0000,   0,1.0000,   0,1.0000,   0,1.0000,0, 1.0000
  851,'1 ',    59.560,    49.360,    96.640,   -27.810,1.00626,    0,   100.000,   0.00000,   1.00000,   0.00000,   0.00000,1.00000,1,  100.0,   200.000,     0.000,   1,1.0000,   0,1.0000,   0,1.0000,   0,1.0000,0, 1.0000
  858,'1 ',   855.600,   161.180,   440.670,  -172.150,1.03530,    0,   100.000,   0.00000,   1.00000,   0.00000,   0.00000,1.00000,1,  100.0,  1000.000,   333.330,   1,1.0000,   0,1.0000,   0,1.0000,   0,1.0000,0, 1.0000
  891,'1 ',  1702.800,   646.560,  1097.410,  -373.910,1.06320,    0,   100.000,   0.00000,   1.00000,   0.00000,   0.00000,1.00000,1,  100.0,  2400.000,   800.000,   1,1.0000,   0,1.0000,   0,1.0000,   0,1.0000,0, 1.0000
  913,'1 ',  1249.400,   719.820,   772.110,  -269.940,1.03277,    0,   100.000,   0.00000,   1.00000,   0.00000,   0.00000,1.00000,1,  100.0,  1700.000,   566.670,   1,1.0000,   0,1.0000,   0,1.0000,   0,1.0000,0, 1.0000
  916,'1 ',   230.200,   -26.120,   134.450,   -49.760,1.02401,    0,   100.000,   0.00000,   1.00000,   0.00000,   0.00000,1.00000,1,  100.0,   300.000,     0.000,   1,1.0000,   0,1.0000,   0,1.0000,   0,1.0000,0, 1.0000
  930,'1 ',   679.600,  -118.400,   406.660,  -144.750,1.06376,    0,   100.000,   0.00000,   1.00000,   0.00000,   0.00000,1.00000,1,  100.0,   900.000,   300.000,   1,1.0000,   0,1.0000,   0,1.0000,   0,1.0000,0, 1.0000
  972,'1 ',  1221.200,   397.480,   934.730,  -291.520,1.06900,    0,   100.000,   0.00000,   1.00000,   0.00000,   0.00000,1.00000,1,  100.0,  2000.000,   666.670,   1,1.0000,   0,1.0000,   0,1.0000,   0,1.0000,0, 1.0000
  976,'1 ',    21.300,    -5.880,    36.020,   -35.350,1.02985,    0,   100.000,   0.00000,   1.00000,   0.00000,   0.00000,1.00000,1,  100.0,   107.830,     0.000,   1,1.0000,   0,1.0000,   0,1.0000,   0,1.0000,0, 1.0000
 1001,'1 ',    92.100,    29.320,    55.020,   -19.810,1.07336,    0,   100.000,   0.00000,   1.00000,   0.00000,   0.00000,1.00000,1,  100.0,   120.000,     0.000,   1,1.0000,   0,1.0000,   0,1.0000,   0,1.0000,0, 1.0000
 1002,'1 ',   171.000,    15.980,    89.550,   -35.150,1.04065,    0,   100.000,   0.00000,   1.00000,   0.00000,   0.00000,1.00000,1,  100.0,   200.000,     0.000,   1,1.0000,   0,1.0000,   0,1.0000,   0,1.0000,0, 1.0000
 1021,'1 ',  -179.300,     3.660,    58.340,   -16.230,1.01913,    0,   100.000,   0.00000,   1.00000,   0.00000,   0.00000,1.00000,1,  100.0,   100.000,  -239.070,   1,1.0000,   0,1.0000,   0,1.0000,   0,1.0000,0, 1.0000
 1030,'1 ',   164.940,     7.290,    71.660,   -27.890,1.00979,    0,   100.000,   0.00000,   1.00000,   0.00000,   0.00000,1.00000,1,  100.0,   400.000,   100.000,   1,1.0000,   0,1.0000,   0,1.0000,   0,1.0000,0, 1.0000
 1036,'1 ',   202.500,    -1.530,   137.390,   -46.450,1.03866,    0,   100.000,   0.00000,   1.00000,   0.00000,   0.00000,1.00000,1,  100.0,   300.000,   100.000,   1,1.0000,   0,1.0000,   0,1.0000,   0,1.0000,0, 1.0000
 1043,'1 ',   829.500,    41.740,   387.880,  -163.400,1.02979,    0,   100.000,   0.00000,   1.00000,   0.00000,   0.00000,1.00000,1,  100.0,   900.000,   300.000,   1,1.0000,   0,1.0000,   0,1.0000,   0,1.0000,0, 1.0000
 1083,'1 ',    91.800,    10.700,    54.910,   -19.880,1.04615,    0,   100.000,   0.00000,   1.00000,   0.00000,   0.00000,1.00000,1,  100.0,   120.000,     0.000,   1,1.0000,   0,1.0000,   0,1.0000,   0,1.0000,0, 1.0000
 1093,'1 ',   837.000,    95.080,   550.690,  -185.150,1.02646,    0,   100.000,   0.00000,   1.00000,   0.00000,   0.00000,1.00000,1,  100.0,  1200.000,   400.000,   1,1.0000,   0,1.0000,   0,1.0000,   0,1.0000,0, 1.0000
 1100,'1 ',    58.200,     5.030,    36.800,   -13.010,1.04521,    0,   100.000,   0.00000,   1.00000,   0.00000,   0.00000,1.00000,1,  100.0,    80.000,     0.000,   1,1.0000,   0,1.0000,   0,1.0000,   0,1.0000,0, 1.0000
 1102,'1 ',  -124.150,    12.770,    38.050,   -11.590,1.05190,    0,   100.000,   0.00000,   1.00000,   0.00000,   0.00000,1.00000,1,  100.0,   100.000,  -165.540,   1,1.0000,   0,1.0000,   0,1.0000,   0,1.0000,0, 1.0000
 1121,'1 ',   289.790,   -18.850,   158.200,   -62.810,1.01967,    0,   100.000,   0.00000,   1.00000,   0.00000,   0.00000,1.00000,1,  100.0,   360.000,     0.000,   1,1.0000,   0,1.0000,   0,1.0000,   0,1.0000,0, 1.0000
 1173,'1 ',  -124.700,     0.310,     1.850,    -0.880,1.02612,    0,   100.000,   0.00000,   1.00000,   0.00000,   0.00000,1.00000,1,  100.0,   100.000,  -166.270,   1,1.0000,   0,1.0000,   0,1.0000,   0,1.0000,0, 1.0000
 1174,'1 ',    26.800,     5.720,    18.610,    -6.280,1.00487,    0,   100.000,   0.00000,   1.00000,   0.00000,   0.00000,1.00000,1,  100.0,    40.000,     0.000,   1,1.0000,   0,1.0000,   0,1.0000,   0,1.0000,0, 1.0000
 1175,'1 ',   309.540,    -1.370,   108.350,   -39.120,1.04002,    0,   100.000,   0.00000,   1.00000,   0.00000,   0.00000,1.00000,1,  100.0,   700.000,   200.000,   1,1.0000,   0,1.0000,   0,1.0000,   0,1.0000,0, 1.0000
 1237,'1 ',  1504.800,   347.490,   906.610,  -319.440,1.10504,    0,   100.000,   0.00000,   1.00000,   0.00000,   0.00000,1.00000,1,  100.0,  2000.000,   666.670,   1,1.0000,   0,1.0000,   0,1.0000,   0,1.0000,0, 1.0000
 1241,'1 ',    46.130,   -14.820,    22.290,   -20.980,1.02144,    0,   100.000,   0.00000,   1.00000,   0.00000,   0.00000,1.00000,1,  100.0,    65.630,     0.000,   1,1.0000,   0,1.0000,   0,1.0000,   0,1.0000,0, 1.0000
 1251,'1 ',   837.000,    89.880,   550.690,  -185.150,1.02650,    0,   100.000,   0.00000,   1.00000,   0.00000,   0.00000,1.00000,1,  100.0,  1200.000,   400.000,   1,1.0000,   0,1.0000,   0,1.0000,   0,1.0000,0, 1.0000
 1271,'1 ',  -100.500,   -12.520,    32.540,   -32.110,1.01557,    0,   100.000,   0.00000,   1.00000,   0.00000,   0.00000,1.00000,1,  100.0,   100.000,  -134.000,   1,1.0000,   0,1.0000,   0,1.0000,   0,1.0000,0, 1.0000
 1295,'1 ',  -124.100,     9.310,    36.920,   -12.880,1.03894,    0,   100.000,   0.00000,   1.00000,   0.00000,   0.00000,1.00000,1,  100.0,   100.000,  -165.470,   1,1.0000,   0,1.0000,   0,1.0000,   0,1.0000,0, 1.0000
 1341,'1 ',    67.200,    31.220,    57.030,   -17.620,1.03040,    0,   100.000,   0.00000,   1.00000,   0.00000,   0.00000,1.00000,1,  100.0,   120.000,     0.000,   1,1.0000,   0,1.0000,   0,1.0000,   0,1.0000,0, 1.0000
 1354,'1 ',  -246.500,    21.440,    38.080,   -11.730,1.04168,    0,   100.000,   0.00000,   1.00000,   0.00000,   0.00000,1.00000,1,  100.0,   100.000,  -328.670,   1,1.0000,   0,1.0000,   0,1.0000,   0,1.0000,0, 1.0000
 1391,'1 ',    26.200,     2.190,    18.740,    -6.170,1.02892,    0,   100.000,   0.00000,   1.00000,   0.00000,   0.00000,1.00000,1,  100.0,    40.000,     0.000,   1,1.0000,   0,1.0000,   0,1.0000,   0,1.0000,0, 1.0000
 1399,'1 ',  -174.600,    -2.470,    11.640,   -10.200,1.05272,    0,   100.000,   0.00000,   1.00000,   0.00000,   0.00000,1.00000,1,  100.0,   100.000,  -232.800,   1,1.0000,   0,1.0000,   0,1.0000,   0,1.0000,0, 1.0000
 1409,'1 ',   628.190,   -89.190,   338.660,  -151.760,1.02491,    0,   100.000,   0.00000,   1.00000,   0.00000,   0.00000,1.00000,1,  100.0,   800.000,   266.670,   1,1.0000,   0,1.0000,   0,1.0000,   0,1.0000,0, 1.0000
 1422,'1 ',  -101.000,     3.680,    18.090,    -6.790,1.04529,    0,   100.000,   0.00000,   1.00000,   0.00000,   0.00000,1.00000,1,  100.0,   100.000,  -134.670,   1,1.0000,   0,1.0000,   0,1.0000,   0,1.0000,0, 1.0000
 1436,'1 ',    49.400,     2.830,    37.720,   -12.090,1.04926,    0,   100.000,   0.00000,   1.00000,   0.00000,   0.00000,1.00000,1,  100.0,    80.000,     0.000,   1,1.0000,   0,1.0000,   0,1.0000,   0,1.0000,0, 1.0000
 1458,'1 ',  1588.000,  -288.240,   895.230,  -330.780,1.05352,    0,   100.000,   0.00000,   1.00000,   0.00000,   0.00000,1.00000,1,  100.0,  2000.000,   666.670,   1,1.0000,   0,1.0000,   0,1.0000,   0,1.0000,0, 1.0000
 1475,'1 ',   783.900,  -108.210,   394.450,  -157.000,1.02540,    0,   100.000,   0.00000,   1.00000,   0.00000,   0.00000,1.00000,1,  100.0,   900.000,   300.000,   1,1.0000,   0,1.0000,   0,1.0000,   0,1.0000,0, 1.0000
 1478,'1 ',    62.600,     7.210,    36.400,   -13.440,1.04616,    0,   100.000,   0.00000,   1.00000,   0.00000,   0.00000,1.00000,1,  100.0,    80.000,     0.000,   1,1.0000,   0,1.0000,   0,1.0000,   0,1.0000,0, 1.0000
 1498,'1 ',     5.200,     0.360,     2.250,    -1.060,1.07839,    0,   100.000,   0.00000,   1.00000,   0.00000,   0.00000,1.00000,1,  100.0,     5.310,     0.000,   1,1.0000,   0,1.0000,   0,1.0000,   0,1.0000,0, 1.0000
 1570,'1 ',   121.400,    -4.090,    93.160,   -29.490,1.07906,    0,   100.000,   0.00000,   1.00000,   0.00000,   0.00000,1.00000,1,  100.0,   200.000,    66.670,   1,1.0000,   0,1.0000,   0,1.0000,   0,1.0000,0, 1.0000
 1604,'1 ',    50.600,    14.560,    37.660,   -12.170,1.04428,    0,   100.000,   0.00000,   1.00000,   0.00000,   0.00000,1.00000,1,  100.0,    80.000,     0.000,   1,1.0000,   0,1.0000,   0,1.0000,   0,1.0000,0, 1.0000
 1618,'1 ',  -136.600,   -10.110,    21.270,   -20.070,1.07932,    0,   100.000,   0.00000,   1.00000,   0.00000,   0.00000,1.00000,1,  100.0,   100.000,  -182.130,   1,1.0000,   0,1.0000,   0,1.0000,   0,1.0000,0, 1.0000
 1642,'1 ',    50.400,    13.340,    37.740,   -12.110,1.03192,    0,   100.000,   0.00000,   1.00000,   0.00000,   0.00000,1.00000,1,  100.0,    80.000,     0.000,   1,1.0000,   0,1.0000,   0,1.0000,   0,1.0000,0, 1.0000
 1680,'1 ',  1250.400,   271.170,   928.890,  -296.100,1.04421,    0,   100.000,   0.00000,   1.00000,   0.00000,   0.00000,1.00000,1,  100.0,  2000.000,   666.670,   1,1.0000,   0,1.0000,   0,1.0000,   0,1.0000,0, 1.0000
 1685,'1 ',    62.700,    16.570,    57.410,   -17.220,1.00578,    0,   100.000,   0.00000,   1.00000,   0.00000,   0.00000,1.00000,1,  100.0,   120.000,     0.000,   1,1.0000,   0,1.0000,   0,1.0000,   0,1.0000,0, 1.0000
 1697,'1 ',  -189.000,   -12.590,    31.940,   -31.240,1.04149,    0,   100.000,   0.00000,   1.00000,   0.00000,   0.00000,1.00000,1,  100.0,   100.000,  -252.000,   1,1.0000,   0,1.0000,   0,1.0000,   0,1.0000,0, 1.0000
 1708,'1 ',   860.800,   132.370,   439.370,  -173.300,1.03784,    0,   100.000,   0.00000,   1.00000,   0.00000,   0.00000,1.00000,1,  100.0,  1000.000,   333.330,   1,1.0000,   0,1.0000,   0,1.0000,   0,1.0000,0, 1.0000
 1721,'1 ',    28.100,     1.630,    18.520,    -6.390,1.06154,    0,   100.000,   0.00000,   1.00000,   0.00000,   0.00000,1.00000,1,  100.0,    40.000,     0.000,   1,1.0000,   0,1.0000,   0,1.0000,   0,1.0000,0, 1.0000
 1747,'1 ',   835.500,   271.390,   387.670,  -163.730,1.05527,    0,   100.000,   0.00000,   1.00000,   0.00000,   0.00000,1.00000,1,  100.0,   900.000,   300.000,   1,1.0000,   0,1.0000,   0,1.0000,   0,1.0000,0, 1.0000
 1754,'1 ',    40.000,     5.450,    16.990,    -7.920,1.04080,    0,   100.000,   0.00000,   1.00000,   0.00000,   0.00000,1.00000,1,  100.0,    41.060,     0.000,   1,1.0000,   0,1.0000,   0,1.0000,   0,1.0000,0, 1.0000
 1788,'1 ',   430.200,   252.540,   272.250,   -94.920,1.01873,    0,   100.000,   0.00000,   1.00000,   0.00000,   0.00000,1.00000,1,  100.0,   600.000,   200.000,   1,1.0000,   0,1.0000,   0,1.0000,   0,1.0000,0, 1.0000
 1793,'1 ',   -90.300,    -0.670,    34.640,   -15.200,1.02341,    0,   100.000,   0.00000,   1.00000,   0.00000,   0.00000,1.00000,1,  100.0,   100.000,  -120.400,   1,1.0000,   0,1.0000,   0,1.0000,   0,1.0000,0, 1.0000
 1794,'1 ',  1250.400,   248.880,   926.350,  -297.680,1.05273,    0,   100.000,   0.00000,   1.00000,   0.00000,   0.00000,1.00000,1,  100.0,  2000.000,   666.670,   1,1.0000,   0,1.0000,   0,1.0000,   0,1.0000,0, 1.0000
 1808,'1 ',    -0.600,    -6.420,   111.230,   -38.160,1.04782,    0,   100.000,   0.00000,   1.00000,   0.00000,   0.00000,1.00000,1,  100.0,   100.000,    -0.800,   1,1.0000,   0,1.0000,   0,1.0000,   0,1.0000,0, 1.0000
 1850,'1 ',     2.890,    -1.450,    11.520,   -10.090,1.02016,    0,   100.000,   0.00000,   1.00000,   0.00000,   0.00000,1.00000,1,  100.0,    32.970,     0.000,   1,1.0000,   0,1.0000,   0,1.0000,   0,1.0000,0, 1.0000
 1851,'1 ',    15.600,    -0.750,    11.760,    -8.890,1.04920,    0,   100.000,   0.00000,   1.00000,   0.00000,   0.00000,1.00000,1,  100.0,    31.920,     0.000,   1,1.0000,   0,1.0000,   0,1.0000,   0,1.0000,0, 1.0000
 1852,'1 ',  -241.800,    15.700,    58.160,   -16.520,1.05613,    0,   100.000,   0.00000,   1.00000,   0.00000,   0.00000,1.00000,1,  100.0,   100.000,  -322.400,   1,1.0000,   0,1.0000,   0,1.0000,   0,1.0000,0, 1.0000
 1888,'1 ',   573.680,    43.660,   396.020,  -155.830,1.04310,    0,   100.000,   0.00000,   1.00000,   0.00000,   0.00000,1.00000,1,  100.0,   912.780,   312.780,   1,1.0000,   0,1.0000,   0,1.0000,   0,1.0000,0, 1.0000
 1890,'1 ',  1526.000,   129.250,   686.730,  -294.620,1.05085,    0,   100.000,   0.00000,   1.00000,   0.00000,   0.00000,1.00000,1,  100.0,  1600.000,   533.330,   1,1.0000,   0,1.0000,   0,1.0000,   0,1.0000,0, 1.0000
 1898,'1 ',   246.000,   -24.920,   133.110,   -51.250,1.07771,    0,   100.000,   0.00000,   1.00000,   0.00000,   0.00000,1.00000,1,  100.0,   300.000,     0.000,   1,1.0000,   0,1.0000,   0,1.0000,   0,1.0000,0, 1.0000
 1909,'1 ',   -31.180,     3.610,    38.670,   -11.100,1.02179,    0,   100.000,   0.00000,   1.00000,   0.00000,   0.00000,1.00000,1,  100.0,   100.000,   -41.570,   1,1.0000,   0,1.0000,   0,1.0000,   0,1.0000,0, 1.0000
 1914,'1 ',   115.500,   -35.250,   160.360,  -150.950,1.03834,    0,   100.000,   0.00000,   1.00000,   0.00000,   0.00000,1.00000,1,  100.0,   472.160,    39.350,   1,1.0000,   0,1.0000,   0,1.0000,   0,1.0000,0, 1.0000
 1947,'1 ',   -17.020,     0.430,     2.050,    -0.970,1.05651,    0,   100.000,   0.00000,   1.00000,   0.00000,   0.00000,1.00000,1,  100.0,   100.000,   -22.700,   1,1.0000,   0,1.0000,   0,1.0000,   0,1.0000,0, 1.0000
 1959,'1 ',    31.000,     1.060,    18.140,    -6.750,1.06695,    0,   100.000,   0.00000,   1.00000,   0.00000,   0.00000,1.00000,1,  100.0,    40.000,     0.000,   1,1.0000,   0,1.0000,   0,1.0000,   0,1.0000,0, 1.0000
 1999,'1 ',   141.600,     5.800,    80.510,   -30.070,1.08021,    0,   100.000,   0.00000,   1.00000,   0.00000,   0.00000,1.00000,1,  100.0,   180.000,     0.000,   1,1.0000,   0,1.0000,   0,1.0000,   0,1.0000,0, 1.0000
 2030,'1 ',   576.000,   167.940,   257.000,  -110.850,1.07268,    0,   100.000,   0.00000,   1.00000,   0.00000,   0.00000,1.00000,1,  100.0,   600.000,   200.000,   1,1.0000,   0,1.0000,   0,1.0000,   0,1.0000,0, 1.0000
 2035,'1 ',   855.600,   161.480,   441.850,  -171.270,1.03455,    0,   100.000,   0.00000,   1.00000,   0.00000,   0.00000,1.00000,1,  100.0,  1000.000,   333.330,   1,1.0000,   0,1.0000,   0,1.0000,   0,1.0000,0, 1.0000
 2050,'1 ',   836.200,   -45.260,   962.200,  -263.650,1.00859,    0,   100.000,   0.00000,   1.00000,   0.00000,   0.00000,1.00000,1,  100.0,  2000.000,   666.670,   1,1.0000,   0,1.0000,   0,1.0000,   0,1.0000,0, 1.0000
 2085,'1 ',   176.000,    36.200,    88.390,   -36.190,1.03273,    0,   100.000,   0.00000,   1.00000,   0.00000,   0.00000,1.00000,1,  100.0,   200.000,     0.000,   1,1.0000,   0,1.0000,   0,1.0000,   0,1.0000,0, 1.0000
 2091,'1 ',    33.900,     1.740,    17.880,    -7.040,1.02654,    0,   100.000,   0.00000,   1.00000,   0.00000,   0.00000,1.00000,1,  100.0,    40.000,     0.000,   1,1.0000,   0,1.0000,   0,1.0000,   0,1.0000,0, 1.0000
 2096,'1 ',  1063.500,  -194.120,   522.740,  -212.370,1.05071,    0,   100.000,   0.00000,   1.00000,   0.00000,   0.00000,1.00000,1,  100.0,  1200.000,   400.000,   1,1.0000,   0,1.0000,   0,1.0000,   0,1.0000,0, 1.0000
 2107,'1 ',  1269.400,   611.100,   661.900,  -257.620,1.04823,    0,   100.000,   0.00000,   1.00000,   0.00000,   0.00000,1.00000,1,  100.0,  1500.000,   500.000,   1,1.0000,   0,1.0000,   0,1.0000,   0,1.0000,0, 1.0000
 2150,'1 ',   498.400,    98.970,   266.170,  -101.500,1.06483,    0,   100.000,   0.00000,   1.00000,   0.00000,   0.00000,1.00000,1,  100.0,   600.000,   200.000,   1,1.0000,   0,1.0000,   0,1.0000,   0,1.0000,0, 1.0000
 2177,'1 ',  -121.300,    15.210,    58.350,   -16.260,1.07056,    0,   100.000,   0.00000,   1.00000,   0.00000,   0.00000,1.00000,1,  100.0,   100.000,  -161.730,   1,1.0000,   0,1.0000,   0,1.0000,   0,1.0000,0, 1.0000
 2193,'1 ',     7.900,     1.860,     7.470,    -2.560,1.01418,    0,   100.000,   0.00000,   1.00000,   0.00000,   0.00000,1.00000,1,  100.0,    16.120,     0.000,   1,1.0000,   0,1.0000,   0,1.0000,   0,1.0000,0, 1.0000
...